# generated using pymatgen
data_CaTiO3
_symmetry_space_group_name_H-M   'P 1'
_cell_length_a   10.74409772
_cell_length_b   10.92559298
_cell_length_c   15.27271924
_cell_angle_alpha   90.00000000
_cell_angle_beta   90.00000000
_cell_angle_gamma   90.00000000
_symmetry_Int_Tables_number   1
_chemical_formula_structural   CaTiO3
_chemical_formula_sum   'Ca32 Ti32 O96'
_cell_volume   1792.79790154
_cell_formula_units_Z   32
loop_
 _symmetry_equiv_pos_site_id
 _symmetry_equiv_pos_as_xyz
  1  'x, y, z'
loop_
 _atom_type_symbol
 _atom_type_oxidation_number
  Ca2+  2.0
  Ti4+  4.0
  O2-  -2.0
loop_
 _atom_site_type_symbol
 _atom_site_label
 _atom_site_symmetry_multiplicity
 _atom_site_fract_x
 _atom_site_fract_y
 _atom_site_fract_z
 _atom_site_occupancy
  Ca2+  Ca0  1  0.25453346  0.27119878  0.37500000  1.0
  Ca2+  Ca0  1  0.25453346  0.27119878  0.87500000  1.0
  Ca2+  Ca0  1  0.25453346  0.77119878  0.37500000  1.0
  Ca2+  Ca0  1  0.25453346  0.77119878  0.87500000  1.0
  Ca2+  Ca0  1  0.75453346  0.27119878  0.37500000  1.0
  Ca2+  Ca0  1  0.75453346  0.27119878  0.87500000  1.0
  Ca2+  Ca0  1  0.75453346  0.77119878  0.37500000  1.0
  Ca2+  Ca0  1  0.75453346  0.77119878  0.87500000  1.0
  Ca2+  Ca1  1  0.24546655  0.22880122  0.12500000  1.0
  Ca2+  Ca1  1  0.24546655  0.22880122  0.62500000  1.0
  Ca2+  Ca1  1  0.24546655  0.72880122  0.12500000  1.0
  Ca2+  Ca1  1  0.24546655  0.72880122  0.62500000  1.0
  Ca2+  Ca1  1  0.74546655  0.22880122  0.12500000  1.0
  Ca2+  Ca1  1  0.74546655  0.22880122  0.62500000  1.0
  Ca2+  Ca1  1  0.74546654  0.72880122  0.12500000  1.0
  Ca2+  Ca1  1  0.74546654  0.72880122  0.62500000  1.0
  Ca2+  Ca2  1  0.49546655  0.02119877  0.37500000  1.0
  Ca2+  Ca2  1  0.49546655  0.02119877  0.87500000  1.0
  Ca2+  Ca2  1  0.49546654  0.52119878  0.37500000  1.0
  Ca2+  Ca2  1  0.49546654  0.52119878  0.87500000  1.0
  Ca2+  Ca2  1  0.99546655  0.02119877  0.37500000  1.0
  Ca2+  Ca2  1  0.99546655  0.02119877  0.87500000  1.0
  Ca2+  Ca2  1  0.99546654  0.52119878  0.37500000  1.0
  Ca2+  Ca2  1  0.99546654  0.52119878  0.87500000  1.0
  Ca2+  Ca3  1  0.00453345  0.47880123  0.12500000  1.0
  Ca2+  Ca3  1  0.00453345  0.47880123  0.62500000  1.0
  Ca2+  Ca3  1  0.00453345  0.97880123  0.12500000  1.0
  Ca2+  Ca3  1  0.00453345  0.97880123  0.62500000  1.0
  Ca2+  Ca3  1  0.50453346  0.47880123  0.12500000  1.0
  Ca2+  Ca3  1  0.50453346  0.47880123  0.62500000  1.0
  Ca2+  Ca3  1  0.50453346  0.97880123  0.12500000  1.0
  Ca2+  Ca3  1  0.50453346  0.97880123  0.62500000  1.0
  Ti4+  Ti4  1  1.00000000  0.25000000  0.25000000  1.0
  Ti4+  Ti4  1  1.00000000  0.25000000  0.75000000  1.0
  Ti4+  Ti4  1  1.00000000  0.75000000  0.25000000  1.0
  Ti4+  Ti4  1  1.00000000  0.75000000  0.75000000  1.0
  Ti4+  Ti4  1  0.50000000  0.25000000  0.25000000  1.0
  Ti4+  Ti4  1  0.50000000  0.25000000  0.75000000  1.0
  Ti4+  Ti4  1  0.50000000  0.75000000  0.25000000  1.0
  Ti4+  Ti4  1  0.50000000  0.75000000  0.75000000  1.0
  Ti4+  Ti5  1  1.00000000  0.25000000  1.00000000  1.0
  Ti4+  Ti5  1  1.00000000  0.25000000  0.50000000  1.0
  Ti4+  Ti5  1  1.00000000  0.75000000  1.00000000  1.0
  Ti4+  Ti5  1  1.00000000  0.75000000  0.50000000  1.0
  Ti4+  Ti5  1  0.50000000  0.25000000  1.00000000  1.0
  Ti4+  Ti5  1  0.50000000  0.25000000  0.50000000  1.0
  Ti4+  Ti5  1  0.50000000  0.75000000  1.00000000  1.0
  Ti4+  Ti5  1  0.50000000  0.75000000  0.50000000  1.0
  Ti4+  Ti6  1  0.25000000  0.00000000  0.25000000  1.0
  Ti4+  Ti6  1  0.25000000  0.00000000  0.75000000  1.0
  Ti4+  Ti6  1  0.25000000  0.50000000  0.25000000  1.0
  Ti4+  Ti6  1  0.25000000  0.50000000  0.75000000  1.0
  Ti4+  Ti6  1  0.75000000  0.00000000  0.25000000  1.0
  Ti4+  Ti6  1  0.75000000  0.00000000  0.75000000  1.0
  Ti4+  Ti6  1  0.75000000  0.50000000  0.25000000  1.0
  Ti4+  Ti6  1  0.75000000  0.50000000  0.75000000  1.0
  Ti4+  Ti7  1  0.25000000  0.00000000  0.00000000  1.0
  Ti4+  Ti7  1  0.25000000  0.00000000  0.50000000  1.0
  Ti4+  Ti7  1  0.25000000  0.50000000  1.00000000  1.0
  Ti4+  Ti7  1  0.25000000  0.50000000  0.50000000  1.0
  Ti4+  Ti7  1  0.75000000  0.00000000  0.00000000  1.0
  Ti4+  Ti7  1  0.75000000  0.00000000  0.50000000  1.0
  Ti4+  Ti7  1  0.75000000  0.50000000  0.00000000  1.0
  Ti4+  Ti7  1  0.75000000  0.50000000  0.50000000  1.0
  O2-  O8  1  0.03839055  0.24066381  0.37500000  1.0
  O2-  O8  1  0.03839055  0.24066381  0.87500000  1.0
  O2-  O8  1  0.03839056  0.74066381  0.37500000  1.0
  O2-  O8  1  0.03839056  0.74066381  0.87500000  1.0
  O2-  O8  1  0.53839055  0.24066381  0.37500000  1.0
  O2-  O8  1  0.53839055  0.24066381  0.87500000  1.0
  O2-  O8  1  0.53839055  0.74066381  0.37500000  1.0
  O2-  O8  1  0.53839055  0.74066381  0.87500000  1.0
  O2-  O9  1  0.46160945  0.25933619  0.12500000  1.0
  O2-  O9  1  0.46160945  0.25933619  0.62500000  1.0
  O2-  O9  1  0.46160945  0.75933619  0.12500000  1.0
  O2-  O9  1  0.46160945  0.75933619  0.62500000  1.0
  O2-  O9  1  0.96160945  0.25933619  0.12500000  1.0
  O2-  O9  1  0.96160945  0.25933619  0.62500000  1.0
  O2-  O9  1  0.96160945  0.75933619  0.12500000  1.0
  O2-  O9  1  0.96160945  0.75933619  0.62500000  1.0
  O2-  O10  1  0.21160945  0.49066381  0.37500000  1.0
  O2-  O10  1  0.21160945  0.49066381  0.87500000  1.0
  O2-  O10  1  0.21160945  0.99066381  0.37500000  1.0
  O2-  O10  1  0.21160945  0.99066381  0.87500000  1.0
  O2-  O10  1  0.71160945  0.49066381  0.37500000  1.0
  O2-  O10  1  0.71160945  0.49066381  0.87500000  1.0
  O2-  O10  1  0.71160945  0.99066381  0.37500000  1.0
  O2-  O10  1  0.71160945  0.99066381  0.87500000  1.0
  O2-  O11  1  0.28839055  0.00933619  0.12500000  1.0
  O2-  O11  1  0.28839055  0.00933619  0.62500000  1.0
  O2-  O11  1  0.28839055  0.50933619  0.12500000  1.0
  O2-  O11  1  0.28839055  0.50933619  0.62500000  1.0
  O2-  O11  1  0.78839056  0.00933619  0.12500000  1.0
  O2-  O11  1  0.78839056  0.00933619  0.62500000  1.0
  O2-  O11  1  0.78839055  0.50933619  0.12500000  1.0
  O2-  O11  1  0.78839055  0.50933619  0.62500000  1.0
  O2-  O12  1  0.39514686  0.39480689  0.47992064  1.0
  O2-  O12  1  0.39514686  0.39480689  0.97992064  1.0
  O2-  O12  1  0.39514686  0.89480689  0.47992064  1.0
  O2-  O12  1  0.39514686  0.89480689  0.97992064  1.0
  O2-  O12  1  0.89514686  0.39480689  0.47992064  1.0
  O2-  O12  1  0.89514686  0.39480689  0.97992064  1.0
  O2-  O12  1  0.89514686  0.89480689  0.47992064  1.0
  O2-  O12  1  0.89514686  0.89480689  0.97992064  1.0
  O2-  O13  1  0.10485314  0.10519311  0.22992064  1.0
  O2-  O13  1  0.10485314  0.10519311  0.72992064  1.0
  O2-  O13  1  0.10485314  0.60519311  0.22992064  1.0
  O2-  O13  1  0.10485314  0.60519311  0.72992064  1.0
  O2-  O13  1  0.60485314  0.10519311  0.22992064  1.0
  O2-  O13  1  0.60485314  0.10519311  0.72992064  1.0
  O2-  O13  1  0.60485314  0.60519311  0.22992064  1.0
  O2-  O13  1  0.60485314  0.60519311  0.72992064  1.0
  O2-  O14  1  0.10485314  0.10519311  0.02007936  1.0
  O2-  O14  1  0.10485314  0.10519311  0.52007936  1.0
  O2-  O14  1  0.10485314  0.60519311  0.02007936  1.0
  O2-  O14  1  0.10485314  0.60519311  0.52007936  1.0
  O2-  O14  1  0.60485314  0.10519311  0.02007936  1.0
  O2-  O14  1  0.60485314  0.10519311  0.52007936  1.0
  O2-  O14  1  0.60485314  0.60519311  0.02007936  1.0
  O2-  O14  1  0.60485314  0.60519311  0.52007936  1.0
  O2-  O15  1  0.39514686  0.39480689  0.27007936  1.0
  O2-  O15  1  0.39514686  0.39480689  0.77007936  1.0
  O2-  O15  1  0.39514686  0.89480689  0.27007936  1.0
  O2-  O15  1  0.39514686  0.89480689  0.77007936  1.0
  O2-  O15  1  0.89514686  0.39480689  0.27007936  1.0
  O2-  O15  1  0.89514686  0.39480689  0.77007936  1.0
  O2-  O15  1  0.89514686  0.89480689  0.27007936  1.0
  O2-  O15  1  0.89514686  0.89480689  0.77007936  1.0
  O2-  O16  1  0.35485314  0.14480689  0.47992064  1.0
  O2-  O16  1  0.35485314  0.14480689  0.97992064  1.0
  O2-  O16  1  0.35485314  0.64480689  0.47992064  1.0
  O2-  O16  1  0.35485314  0.64480689  0.97992064  1.0
  O2-  O16  1  0.85485314  0.14480689  0.47992064  1.0
  O2-  O16  1  0.85485314  0.14480689  0.97992064  1.0
  O2-  O16  1  0.85485314  0.64480689  0.47992064  1.0
  O2-  O16  1  0.85485314  0.64480689  0.97992064  1.0
  O2-  O17  1  0.14514686  0.35519311  0.22992064  1.0
  O2-  O17  1  0.14514686  0.35519311  0.72992064  1.0
  O2-  O17  1  0.14514686  0.85519311  0.22992064  1.0
  O2-  O17  1  0.14514686  0.85519311  0.72992064  1.0
  O2-  O17  1  0.64514686  0.35519311  0.22992064  1.0
  O2-  O17  1  0.64514686  0.35519311  0.72992064  1.0
  O2-  O17  1  0.64514686  0.85519311  0.22992064  1.0
  O2-  O17  1  0.64514686  0.85519311  0.72992064  1.0
  O2-  O18  1  0.14514686  0.35519311  0.02007936  1.0
  O2-  O18  1  0.14514686  0.35519311  0.52007936  1.0
  O2-  O18  1  0.14514686  0.85519311  0.02007936  1.0
  O2-  O18  1  0.14514686  0.85519311  0.52007936  1.0
  O2-  O18  1  0.64514686  0.35519311  0.02007936  1.0
  O2-  O18  1  0.64514686  0.35519311  0.52007936  1.0
  O2-  O18  1  0.64514686  0.85519311  0.02007936  1.0
  O2-  O18  1  0.64514686  0.85519311  0.52007936  1.0
  O2-  O19  1  0.35485314  0.14480689  0.27007936  1.0
  O2-  O19  1  0.35485314  0.14480689  0.77007936  1.0
  O2-  O19  1  0.35485314  0.64480689  0.27007936  1.0
  O2-  O19  1  0.35485314  0.64480689  0.77007936  1.0
  O2-  O19  1  0.85485314  0.14480689  0.27007936  1.0
  O2-  O19  1  0.85485314  0.14480689  0.77007936  1.0
  O2-  O19  1  0.85485314  0.64480689  0.27007936  1.0
  O2-  O19  1  0.85485314  0.64480689  0.77007936  1.0
